<?xml version="1.0" encoding="UTF-8"?>

<!-- generated on N 03 veebr 2022 11:20:18 by Eclipse SUMO netedit Version 1.4.0
<configuration xmlns:xsi="http://www.w3.org/2001/XMLSchema-instance" xsi:noNamespaceSchemaLocation="http://sumo.dlr.de/xsd/netconvertConfiguration.xsd">

    <input>
        <sumo-net-file value="/home/user/PycharmProjects/LaneChanger_FF/envs/Intersection/sumo_cfg/network.net.xml"/>
    </input>

    <output>
        <output-file value="/home/user/PycharmProjects/LaneChanger_FF/envs/Intersection/sumo_cfg/network.net.xml"/>
    </output>

    <processing>
        <geometry.min-radius.fix.railways value="false"/>
        <geometry.max-grade.fix value="false"/>
        <offset.disable-normalization value="true"/>
        <lefthand value="false"/>
    </processing>

    <junctions>
        <no-turnarounds value="true"/>
        <junctions.corner-detail value="5"/>
        <junctions.limit-turn-speed value="5.5"/>
        <rectangular-lane-cut value="false"/>
    </junctions>

    <pedestrian>
        <walkingareas value="false"/>
    </pedestrian>

    <report>
        <aggregate-warnings value="5"/>
    </report>

</configuration>
-->

<net version="1.3" junctionCornerDetail="5" limitTurnSpeed="5.50" xmlns:xsi="http://www.w3.org/2001/XMLSchema-instance" xsi:noNamespaceSchemaLocation="http://sumo.dlr.de/xsd/net_file.xsd">

    <location netOffset="0.00,0.00" convBoundary="-100.00,-1000000.00,100.00,100.00" origBoundary="-10000000000.00,-10000000000.00,10000000000.00,10000000000.00" projParameter="!"/>

    <edge id=":intersection_0" function="internal">
        <lane id=":intersection_0_0" index="0" speed="21.95" length="11.20" shape="0.00,5.60 0.00,-5.60"/>
    </edge>
    <edge id=":intersection_1" function="internal">
        <lane id=":intersection_1_0" index="0" speed="6.51" length="4.28" shape="0.00,5.60 0.35,3.15 1.28,1.60"/>
    </edge>
    <edge id=":intersection_4" function="internal">
        <lane id=":intersection_4_0" index="0" speed="6.51" length="4.75" shape="1.28,1.60 1.40,1.40 3.15,0.35 5.60,0.00"/>
    </edge>
    <edge id=":intersection_2" function="internal">
        <lane id=":intersection_2_0" index="0" speed="6.51" length="9.03" shape="-5.60,0.00 -3.15,-0.35 -1.40,-1.40 -0.35,-3.15 0.00,-5.60"/>
    </edge>
    <edge id=":intersection_3" function="internal">
        <lane id=":intersection_3_0" index="0" speed="21.95" length="11.20" shape="-5.60,0.00 5.60,0.00"/>
    </edge>

    <edge id="o1" from="leftNode" to="intersection" priority="1" spreadType="center">
        <lane id="o1_0" index="0" speed="30.00" length="94.40" shape="-100.00,0.00 -5.60,0.00"/>
    </edge>
    <edge id="o2" from="intersection" to="rightNode" priority="-1" spreadType="center">
        <lane id="o2_0" index="0" speed="30.00" length="94.40" shape="5.60,0.00 100.00,0.00"/>
    </edge>
    <edge id="v1" from="topNode" to="intersection" priority="1" spreadType="center">
        <lane id="v1_0" index="0" speed="30.00" length="94.40" shape="0.00,100.00 0.00,5.60"/>
    </edge>
    <edge id="v2" from="intersection" to="bottomNode" priority="-1" spreadType="center">
        <lane id="v2_0" index="0" speed="30.00" length="999994.40" shape="0.00,-5.60 0.00,-1000000.00"/>
    </edge>

    <junction id="bottomNode" type="dead_end" x="0.00" y="-1000000.00" incLanes="v2_0" intLanes="" shape="-1.60,-1000000.00 1.60,-1000000.00"/>
    <junction id="intersection" type="priority" x="0.00" y="0.00" incLanes="v1_0 o1_0" intLanes=":intersection_0_0 :intersection_4_0 :intersection_2_0 :intersection_3_0" shape="-1.60,5.60 1.60,5.60 2.04,3.38 2.60,2.60 3.38,2.04 4.38,1.71 5.60,1.60 5.60,-1.60 3.38,-2.04 2.60,-2.60 2.04,-3.38 1.71,-4.38 1.60,-5.60 -1.60,-5.60 -2.04,-3.38 -2.60,-2.60 -3.38,-2.04 -4.38,-1.71 -5.60,-1.60 -5.60,1.60 -3.38,2.04 -2.60,2.60 -2.04,3.38 -1.71,4.38" rightOfWay="edgePriority">
        <request index="0" response="1000" foes="1100" cont="0"/>
        <request index="1" response="1000" foes="1000" cont="1"/>
        <request index="2" response="0001" foes="0001" cont="0"/>
        <request index="3" response="0000" foes="0011" cont="0"/>
    </junction>
    <junction id="leftNode" type="dead_end" x="-100.00" y="0.00" incLanes="" intLanes="" shape="-100.00,1.60 -100.00,-1.60"/>
    <junction id="rightNode" type="dead_end" x="100.00" y="0.00" incLanes="o2_0" intLanes="" shape="100.00,-1.60 100.00,1.60"/>
    <junction id="topNode" type="dead_end" x="0.00" y="100.00" incLanes="" intLanes="" shape="1.60,100.00 -1.60,100.00"/>

    <junction id=":intersection_4_0" type="internal" x="1.28" y="1.60" incLanes=":intersection_1_0 o1_0" intLanes=":intersection_3_0"/>

    <connection from="o1" to="v2" fromLane="0" toLane="0" via=":intersection_2_0" dir="r" state="m"/>
    <connection from="o1" to="o2" fromLane="0" toLane="0" via=":intersection_3_0" dir="s" state="M"/>
    <connection from="v1" to="v2" fromLane="0" toLane="0" via=":intersection_0_0" dir="s" state="m"/>
    <connection from="v1" to="o2" fromLane="0" toLane="0" via=":intersection_1_0" dir="l" state="m"/>

    <connection from=":intersection_0" to="v2" fromLane="0" toLane="0" dir="s" state="M"/>
    <connection from=":intersection_1" to="o2" fromLane="0" toLane="0" via=":intersection_4_0" dir="l" state="m"/>
    <connection from=":intersection_4" to="o2" fromLane="0" toLane="0" dir="l" state="M"/>
    <connection from=":intersection_2" to="v2" fromLane="0" toLane="0" dir="r" state="M"/>
    <connection from=":intersection_3" to="o2" fromLane="0" toLane="0" dir="s" state="M"/>

</net>
